*Heading
** Job name: Job-1 Model name: Model-1
** Generated by: Abaqus/CAE 2021
*Preprint, echo=NO, model=NO, history=NO, contact=NO
**
** PARTS
**
*Part, name=Part-1
*Node
      1,           0.,           0.
      2,          10.,           0.
      3,          20.,           0.
      4,          30.,           0.
      5,          40.,           0.
      6,          50.,           0.
      7,          60.,           0.
      8,          70.,           0.
      9,          80.,           0.
     10,          90.,           0.
     11,         100.,           0.
     12,           0.,          10.
     13,          10.,          10.
     14,          20.,          10.
     15,          30.,          10.
     16,          40.,          10.
     17,          50.,          10.
     18,          60.,          10.
     19,          70.,          10.
     20,          80.,          10.
** ... 101 like lines cut
*Element, type=CPS4
  1,   1,   2,  13,  12
  2,   2,   3,  14,  13
  3,   3,   4,  15,  14
  4,   4,   5,  16,  15
  5,   5,   6,  17,  16
  6,   6,   7,  18,  17
  7,   7,   8,  19,  18
  8,   8,   9,  20,  19
  9,   9,  10,  21,  20
 10,  10,  11,  22,  21
 11,  12,  13,  24,  23
 12,  13,  14,  25,  24
 13,  14,  15,  26,  25
 14,  15,  16,  27,  26
 15,  16,  17,  28,  27
 16,  17,  18,  29,  28
 17,  18,  19,  30,  29
 18,  19,  20,  31,  30
 19,  20,  21,  32,  31
 20,  21,  22,  33,  32
** ... 80 like lines cut
*Nset, nset=_PickedSet2, internal, generate
   1,  121,    1
*Elset, elset=_PickedSet2, internal, generate
   1,  100,    1
** Section: Section-1
*Solid Section, elset=_PickedSet2, material=Steel
,
*End Part
**  
**
** ASSEMBLY
**
*Assembly, name=Assembly
**  
*Instance, name=Part-1-1, part=Part-1
*End Instance
**  
*Nset, nset=_PickedSet4, internal, instance=Part-1-1, generate
  1,  11,   1
*Elset, elset=_PickedSet4, internal, instance=Part-1-1, generate
  1,  10,   1
*Nset, nset=_PickedSet5, internal, instance=Part-1-1
 111,
*End Assembly
** 
** MATERIALS
** 
*Material, name=Steel
*Damping, alpha=0.03, beta=0.002
*Density
7800.,
*Elastic
 2.1e+11, 0.3
** ----------------------------------------------------------------
** 
** STEP: StaticAna
** 
*Step, name=StaticAna, nlgeom=NO
*Static
1., 1., 1e-05, 1.
** 
** BOUNDARY CONDITIONS
** 
** Name: BC-1 Type: Displacement/Rotation
*Boundary
_PickedSet4, 1, 1
_PickedSet4, 2, 2
** 
** LOADS
** 
** Name: Load-1   Type: Concentrated force
*Cload
_PickedSet5, 1, 1000.
** 
** OUTPUT REQUESTS
** 
*Restart, write, frequency=0
** 
** FIELD OUTPUT: F-Output-1
** 
*Output, field, variable=PRESELECT
** 
** HISTORY OUTPUT: H-Output-1
** 
*Output, history, variable=PRESELECT
*End Step
** ----------------------------------------------------------------
** 
** STEP: Step-MatrixOutput
** 
*Step, name=Step-MatrixOutput
*Matrix Generate, stiffness, mass, viscous damping, structural damping, load
*Matrix Output, stiffness, mass, viscous damping, structural damping, load, format=Matrix Input
** 
** BOUNDARY CONDITIONS
** 
** Name: BC-1 Type: Displacement/Rotation
*Boundary
_PickedSet4, 1, 1
_PickedSet4, 2, 2
** 
** LOADS
** 
** Name: Load-1   Type: Concentrated force
*Cload
_PickedSet5, 1, 1000.
** 
*End Step